8
 energy: -7.666304498718 gnorm: 0.000190221427 xtb: 6.5.1 (b24c23e)
C            0.76642304919542       -0.06163930870885        0.08953799926440
N           -0.70351550322856        0.05684742748448       -0.08167003265627
H           -1.19551152631209       -0.46430404737331        0.65662239322936
H           -0.99379756555316        1.04276893344027       -0.03227693713812
H           -0.99176759266696       -0.32161404394256       -0.99403936697317
H            1.06582191250438       -1.10614745787220        0.03617191669850
H            1.27965120608337        0.49152627271288       -0.69409766779729
H            1.06369401997760        0.34022122425928        1.05577870537259
