8
 energy: -7.666304499550 gnorm: 0.000172522233 xtb: 6.5.1 (b24c23e)
C            0.76600675716946       -0.05881902005355        0.09483474168149
N           -0.70309266076477        0.05398918246022       -0.08704604600413
H           -1.11174435224274       -0.86627025913441       -0.29886354376859
H           -1.14530584998245        0.41703120306871        0.76816631572378
H           -0.92215391145278        0.69336340813121       -0.86290238677643
H            0.98991168348880       -0.73598373591301        0.91629600459774
H            1.22647639900007       -0.44304466587766       -0.81281185900482
H            1.19089794478441        0.91739389731849        0.31835178355096
