8
 energy: -7.664469004521 gnorm: 0.000871034649 xtb: 6.5.1 (b24c23e)
C            0.76849364087505       -0.05477149882190        0.09369392234444
N           -0.70678654081583        0.04890973462722       -0.08171603000265
H           -1.19903913172541       -0.64881612876141        0.49015276573933
H           -1.03370200393433        0.98318657854291        0.20020450131000
H           -0.96624382318197       -0.07514700752975       -1.06887565008631
H            1.05115209932307       -1.09313780814003        0.25845845345525
H            1.28111768534243        0.28497417780904       -0.80318593599392
H            1.09600607411700        0.53246095227393        0.94729497323386
