8
 energy: -7.664464953682 gnorm: 0.000654292329 xtb: 6.5.1 (b24c23e)
C            0.76927142170547       -0.05102015703007        0.09025965351358
N           -0.70523220919541        0.04788550744198       -0.09408436384095
H           -1.08223334963628       -0.80095111436336       -0.53385225903304
H           -1.17058531250051        0.17286407117269        0.81518588296300
H           -0.94635143028694        0.86503457689540       -0.67009060506414
H            0.99385539889087       -0.54472350638106        1.03400026116368
H            1.21061460505633       -0.64820726864573       -0.70434743227335
H            1.22165687596647        0.93677788091014        0.09895384257121
