8
 energy: -7.666304499324 gnorm: 0.000173478651 xtb: 6.5.1 (b24c23e)
C            0.76679188036473       -0.04297539378213        0.09692723805406
N           -0.70388339940784        0.03793593965491       -0.08917095452762
H           -0.95847958890990       -0.20222685018178       -1.05676662523563
H           -1.18386477913326       -0.61497770071219        0.54491509799404
H           -1.04038114542878        0.98993508249449        0.10883763488804
H            1.02836949538855        0.21204573777560        1.12163799256193
H            1.11516623114262       -1.05174119587900       -0.11404559516220
H            1.26727629598389        0.64966537063009       -0.57630978857262
