8
 energy: -7.664462597768 gnorm: 0.000746225054 xtb: 6.5.1 (b24c23e)
C            0.76737035998413       -0.05189269210811        0.10267327776976
N           -0.70756720551028        0.04354280341054       -0.08006003388209
H           -0.98839637362418       -0.41799988515482       -0.95570895127948
H           -1.20748972089394       -0.40925442255077        0.69562534004363
H           -1.00403197442073        1.02586259282252       -0.14677662388734
H            1.02666557304994       -0.01698437231725        1.15748448909231
H            1.14504695566796       -0.97289604832044       -0.33505237040874
H            1.25939837574711        0.77728302421833       -0.40216013744804
