8
 energy: -7.664465067139 gnorm: 0.000651694399 xtb: 6.5.1 (b24c23e)
C            0.76874095082507       -0.06838560988868        0.08294671297204
N           -0.70481074977790        0.06492798841885       -0.08675424416353
H           -1.19105822637592       -0.24010420270320        0.76733256675309
H           -0.97005800226822        1.03940560733959       -0.27671884961041
H           -1.03891484607287       -0.53397448037057       -0.85313747699222
H            1.09599348387273       -1.07018829090060       -0.18119781883277
H            1.28814373487303        0.66059912068273       -0.53480729739117
H            1.04296165492407        0.12537987742188        1.11836340726498
