8
 energy: -7.664462466465 gnorm: 0.000762538308 xtb: 6.5.1 (b24c23e)
C            0.76967766876704       -0.03744189624620        0.09088461986709
N           -0.70571039657873        0.03660217600220       -0.09803627144029
H           -0.95239466825726        0.03553349351082       -1.09592620527605
H           -1.16248131227778       -0.77121342008554        0.34630292472781
H           -1.08813377104698        0.88221490545092        0.34466538129780
H            1.04740826612892        0.42345009068338        1.03689202703968
H            1.09648802930780       -1.07410377389069        0.12278022585087
H            1.28614019395698        0.48261941457512       -0.71153870206691
