9
 energy: -23.460208621910 gnorm: 0.000818426550 xtb: 6.5.1 (b24c23e)
S           -0.33925442011401        0.00929178316281        0.19377443476284
O           -0.83312177892803       -0.61340751316881       -1.02390779629117
O           -0.04760674750272       -0.94258681672259        1.25121943556187
O            1.15959277637403        0.63431062122024       -0.22854368322417
C            1.94158459197888       -0.43345082939635       -0.64388604516658
O           -1.08024153766298        1.17689706698185        0.61658530076096
H            2.67399414522739       -0.07793076492859       -1.37737499033237
H            2.45689969960731       -0.89475918847557        0.20737809601091
H            1.29383725102014       -1.18315533867298       -1.10817976208229
