9
 energy: -23.460181222383 gnorm: 0.000328228126 xtb: 6.5.1 (b24c23e)
S           -0.34012737597709        0.22252220175744       -0.07646404309312
O           -0.01948317401149        1.09907799276882       -1.19176121247320
O           -0.82825903039096       -1.08164576479557       -0.48988932678746
O            1.13879015998051       -0.09692673717723        0.64944199955901
C            1.93531214679664       -0.70971443424913       -0.30655343737568
O           -1.10220073615727        0.84791979408474        0.98139197149186
H            1.79884540469132       -1.79830423295364       -0.28654213799888
H            1.65703602785947       -0.33313353135144       -1.29448071415547
H            2.98577056720886       -0.47458629808400       -0.09807709916705
