9
 energy: -23.454965539998 gnorm: 0.000326090508 xtb: 6.5.1 (b24c23e)
S           -0.39884124650297       -0.04939220196132        0.17812490147606
O           -0.50566961908122       -0.57905192636114       -1.17146813160938
O           -0.91847086183433       -0.93389586175596        1.20294015072482
O            1.25562662350486        0.01664718174783        0.50407890052783
C            2.00180658511663       -0.43549888310030       -0.56756771331090
O           -0.83288256951879        1.32798078555226        0.30858141147960
H            1.82798989100389        0.18289031164480       -1.45534566703834
H            3.06159909155654       -0.38799836672794       -0.28889814795946
H            1.73452710575539       -1.46647304903822       -0.82337869429021
