9
 energy: -23.459262899276 gnorm: 0.000560384769 xtb: 6.5.1 (b24c23e)
S           -0.37892836041953        0.11123529813216       -0.00651050870692
O           -0.43311839098226        0.49352513897634       -1.40768161314873
O           -0.67052723775816       -1.29501866423936        0.21645615115376
O            1.23744592917652        0.28081752313981        0.41618471028917
C            1.98261358458242       -0.56372915375644       -0.39347403382821
O           -1.05078688477471        1.01985220678241        0.89550765617924
H            1.31032243548963       -1.07994470364742       -1.08125094482539
H            2.71631077693697        0.01462866756949       -0.97006185017325
H            2.51235215774913       -1.30615931295693        0.21789444306034
