9
 energy: -23.460119401406 gnorm: 0.000649421724 xtb: 6.5.1 (b24c23e)
S           -0.36409199364561        0.14220911322390       -0.03528269346684
O           -0.28659384164915        0.71496949021618       -1.36792707351804
O           -0.73637618000486       -1.26370041400628       -0.03160471102768
O            1.21910062994582        0.16370944156221        0.52010156995312
C            1.96978251079852       -0.60578818765814       -0.35674538851978
O           -1.06694391001581        0.95381588026808        0.93323908264227
H            1.32533898375171       -1.37583102135024       -0.78994800816531
H            2.36496579184986        0.01238628917346       -1.17348925767835
H            2.80050100896953       -1.06656359142915        0.18872047978062
