9
 energy: -23.459262331392 gnorm: 0.000603899619 xtb: 6.5.1 (b24c23e)
S           -0.28628014910242        0.02827717819795        0.32849537671396
O           -0.86360113454299       -1.06457326216529       -0.43598410019450
O            0.35066430849315       -0.40621962594401        1.56040934793178
O            0.97647507390242        0.59040475922211       -0.62517299097707
C            1.86875201097831       -0.45469230546770       -0.81393487081645
O           -1.13775907902866        1.18907663752834        0.46327519621302
H            2.85205774017109       -0.19375146740073       -0.40113102448809
H            1.48893183994856       -1.34195174577795       -0.30404210780239
H            1.97644439918051       -0.67136316819272       -1.88484782658026
