9
 energy: -23.460884962599 gnorm: 0.000569957988 xtb: 6.5.1 (b24c23e)
S           -0.35802863180413        0.05470619484047        0.06828264735821
O           -0.61967054276981        0.04837461073621       -1.36114651182651
O           -0.43560927815943       -1.26149255187027        0.67967256384326
O            1.25884665333755        0.48166016113989        0.19560471962733
C            1.96950904572507       -0.49336156378669       -0.48854000670567
O           -1.03940309752256        1.09958587864499        0.80024354836457
H            1.66299372778047       -0.50393973311760       -1.54063847977579
H            3.03850211277923       -0.27333555694185       -0.40675806913508
H            1.74854499063361       -1.47698942964516       -0.05965641175032
