9
 energy: -23.460096660146 gnorm: 0.000351279611 xtb: 6.5.1 (b24c23e)
S           -0.36422645196937        0.03269803591529        0.11061010607545
O           -0.72148845843871       -0.17089947264833       -1.28254925120307
O           -0.33196289691571       -1.19825706918322        0.88447951782118
O            1.23328536213919        0.54451451266539        0.06105745906409
C            1.96738517329214       -0.46530110641623       -0.54336017202451
O           -1.04548690680915        1.13252294828610        0.75647245896084
H            2.02190631904117       -0.31098176169990       -1.62852216249398
H            2.98283334593728       -0.46463231152238       -0.12929562805830
H            1.48343951372316       -1.42445577539672       -0.34182731814171
