9
 energy: -23.457612491911 gnorm: 0.000774896673 xtb: 6.5.1 (b24c23e)
S           -0.41196324635234        0.09095198576120       -0.16297088961808
O           -1.24864468504322        0.81584245251084       -1.09586915546673
O           -0.47306677556134       -1.35323402974225       -0.32223859441258
O            1.14636242275626        0.51931104976378       -0.63210497264091
C            2.00746776047767       -0.52397130139813       -0.34118464687118
O           -0.50786079644013        0.53016390717773        1.21660680796983
H            1.71861784403616       -1.42553731279733       -0.88977630541832
H            3.02437713886978       -0.22151511304770       -0.61598614677625
H            1.97039633725715       -0.75680563822813        0.73058990323423
