9
 energy: -23.460207297442 gnorm: 0.000658802997 xtb: 6.5.1 (b24c23e)
S           -0.36914876678494        0.08160512691189        0.02845080219738
O           -0.53454190133514        0.26496563489874       -1.40475725680741
O           -0.55344316592511       -1.29345302006656        0.45884727896797
O            1.25545019444620        0.39173119844307        0.31051825361364
C            1.97828305212196       -0.52586509272425       -0.43780985041407
O           -1.04303360643359        1.06778074858447        0.84340586411696
H            1.41145092259902       -0.76886142247622       -1.34113690133433
H            2.94816818145951       -0.09043354013554       -0.70098697568752
H            2.13250009985209       -1.45226164343561        0.13053278534740
