%RWF=/home/chase/temp/Gau-esna/,166GB
%Nosave
%Chk=esna-dma_temp.chk
%Mem=5GB
%Nproc=6
#P MP2/6-311G** Sp Density=MP2 MaxDisk=166GB 

esna Gaussian SP Calculation on DESKTOP-26BCFJT

-1 1
 C   -1.081081   -0.905488   -0.014300
 C   -2.300058   -0.019229    0.173123
 S    0.449358    0.054532   -0.028399
 O    0.470257    0.722352    1.302772
 O    1.510482   -0.970089   -0.218574
 O    0.281339    0.987042   -1.177589
 H   -0.986925   -1.636101    0.794668
 H   -1.120823   -1.448474   -0.963341
 H   -2.214888    0.524802    1.116186
 H   -2.348376    0.711888   -0.636647
 H   -3.226516   -0.604949    0.181162



