10
 energy: -13.561862960912 gnorm: 0.000230713534 xtb: 6.5.1 (b24c23e)
N           -0.57870838288622        1.18401525566780       -0.16416443621433
C            0.00000300347494        0.00000255407905       -0.00000251934307
N            1.17334879265251       -0.08589033931180        0.61613188964283
H            1.64301966000277        0.73263762273538        0.96715709306361
H            1.63111957865165       -0.97231721336226        0.75211540664048
N           -0.59463334788684       -1.09811656305714       -0.45197784166316
H           -0.14700171479803        2.03006421986365        0.16994400410254
H           -1.46784145172846        1.27383927775387       -0.62803053451391
H           -1.48410753835255       -1.05775641913498       -0.92208843604018
H           -0.17515858912976       -2.00647037523356       -0.33913460567481
