10
 energy: -13.532258760841 gnorm: 0.000313042457 xtb: 6.5.1 (b24c23e)
N           -0.57857418644349        1.19423902056122       -0.17590407369850
C            0.01194481057146       -0.02464812015244        0.00363113691022
N            1.32178965607793       -0.09736559868164        0.13339852450777
H            1.87536354626146        0.74767709267990        0.09888012176268
H            1.81418632976481       -0.96987640752809        0.26841542106359
N           -0.73768087202791       -1.10826669411505        0.04418079801810
H           -0.72535872152642        1.57414485535678       -1.09212861014704
H           -0.88371141103006        1.74711490494797        0.60291244317464
H           -1.74004473115568       -1.02696820794515       -0.05775013754741
H           -0.35787641049210       -2.03604483512351        0.17431737595595
