10
 energy: -13.556416853039 gnorm: 0.000985265094 xtb: 6.5.1 (b24c23e)
N           -0.57547764340129        1.18767563118825       -0.16392280576948
C            0.00081930484396        0.00164019975231        0.03752374684759
N            1.32428170870681       -0.10067187105180        0.01459187120019
H            1.90623344374442        0.70422516417277       -0.15239650731190
H            1.78830618745625       -0.98243376955434        0.16265380153283
N           -0.74770564540677       -1.08736291006032        0.16278727876031
H           -0.11281842181697        1.91554221047519       -0.68219825901280
H           -1.49233235556728        1.39296206449504        0.19653650757584
H           -1.75221504647656       -1.03624295355210        0.10855910265397
H           -0.33905152208257       -1.99532776586500        0.31581924352345
