10
 energy: -13.561863029712 gnorm: 0.000073673219 xtb: 6.5.1 (b24c23e)
N           -0.57548469251510        1.18471223947649       -0.17092457474975
C            0.00000464893350        0.00000021364934       -0.00000595295392
N            1.29181423569784       -0.07373008933341        0.29955145281223
H            1.85470181389594        0.75478897015818        0.40207412926495
H            1.74947526283358       -0.96049652470083        0.43367418968854
N           -0.71631760098075       -1.11098088233059       -0.12864037985285
H           -1.55302002797278        1.26517551916014       -0.39840481082604
H           -0.05259479189836        2.04018607567937       -0.07847043343047
H           -1.69686938710091       -1.07968554717642       -0.35521434073310
H           -0.30167146089296       -2.01996496458225       -0.00368528921958
