10
 energy: -13.556417347006 gnorm: 0.000217570277 xtb: 6.5.1 (b24c23e)
N           -0.57973975492227        1.18635775431368       -0.15756891471742
C           -0.00916582224997       -0.00364348838665        0.03669581238024
N            1.27925868997021       -0.07357066538410        0.34919704576661
H            1.83817654248683        0.75914541301158        0.44373180377259
H            1.73834573013328       -0.95718332561035        0.50144112229822
N           -0.70196693432767       -1.11518604322379       -0.17836044215259
H           -1.56869818077633        1.32106227050702       -0.02830302632735
H           -0.04045753541464        1.98779726215621       -0.43937033282708
H           -1.65979032079918       -1.07821778609903       -0.48824728766554
H           -0.29592341410027       -2.02655637128458       -0.03926278052765
