10
 energy: -13.542689722133 gnorm: 0.000382378264 xtb: 6.5.1 (b24c23e)
N           -0.57709712870000        1.19350483035232       -0.15407266136857
C            0.00185162853189       -0.00805899553604        0.05597958207432
N            1.32336765844312       -0.09869295539216        0.06768472856621
H            1.89226382696818        0.72184849936089       -0.07813598955913
H            1.80181547600138       -0.97376669171938        0.21969459399025
N           -0.74405300203602       -1.10053011093263        0.10714557367308
H           -0.33549750635356        1.76043530799602       -0.94741224767275
H           -1.26844729733990        1.56021028633021        0.47631535038322
H           -1.74437799763668       -1.03875670411588       -0.00979950512135
H           -0.34978566787842       -2.01618647634335        0.26255356503473
