10
 energy: -13.556416890979 gnorm: 0.000982600994 xtb: 6.5.1 (b24c23e)
N           -0.57196617838740        1.18722040515534       -0.17882967189481
C            0.01714737545849       -0.00071179707531       -0.03343192293534
N            1.19625473764946       -0.08228295788256        0.57121555764773
H            1.65862223803553        0.73983850325274        0.92439948636636
H            1.66545855347618       -0.96485168963162        0.69637954225168
N           -0.61740881793561       -1.10612231261881       -0.40399882197440
H           -0.37138268912509        1.95288247428228        0.44244328818271
H           -1.23647467855189        1.35614564543369       -0.91543367252730
H           -1.54399924002643       -1.06616843436970       -0.79696496745404
H           -0.19621131059322       -2.01594183654604       -0.30582780766261
