10
 energy: -13.542689600782 gnorm: 0.000379073812 xtb: 6.5.1 (b24c23e)
N           -0.56904988631221        1.19238758959898       -0.18875189960693
C            0.02598308785475       -0.01154121751911       -0.04893566566440
N            1.21859712901820       -0.08365499136656        0.52310283883370
H            1.67864838944103        0.75256227829842        0.85064766575802
H            1.70263944165292       -0.95956649117366        0.65059761912365
N           -0.63856940720565       -1.11571457897786       -0.35168395824016
H           -0.68976535580484        1.81157023794394        0.59304606550254
H           -0.91048550723474        1.50866258827456       -1.07937952408006
H           -1.58860028815445       -1.06114421785487       -0.68724777758261
H           -0.22935761325501       -2.03355320722383       -0.26144336404375
