10
 energy: -13.556416625120 gnorm: 0.000991121615 xtb: 6.5.1 (b24c23e)
N           -0.57327556715720        1.18544778852894       -0.18621764613977
C            0.00774164239874       -0.00590464270245       -0.03629349849589
N            1.30226020142443       -0.07678245574093        0.24960608667594
H            1.85868821054844        0.75598682615169        0.35589484812647
H            1.76886909879337       -0.96149080157098        0.36923804812323
N           -0.72542979667507       -1.11170093457364       -0.07608436755101
H           -1.40419438481959        1.29709189540631       -0.74282067458585
H           -0.20013712042206        2.01099090738673        0.25161631199819
H           -1.72164219774296       -1.06951641804684       -0.21882895004231
H           -0.31284208634811       -2.02411716483883        0.03384384189100
