10
 energy: -13.542689586564 gnorm: 0.000379926440 xtb: 6.5.1 (b24c23e)
N           -0.58422392528325        1.19068852894105       -0.14890840586157
C           -0.01220475650352       -0.01557846562448        0.05301024435643
N            1.26447841143233       -0.07854811886927        0.40067875157570
H            1.80447450996219        0.76624485054984        0.51434818798324
H            1.73611372589460       -0.95569237726647        0.56177267168312
N           -0.68315083373752       -1.12059124515505       -0.23205784944516
H           -1.43437582100343        1.45305819679216        0.31824213347186
H           -0.17851225154175        1.86557848403118       -0.77267844818860
H           -1.62126407775202       -1.06495116728664       -0.59946452300782
H           -0.29129598146763       -2.04020367611230       -0.09498973256723
