7
 energy: -14.166166055550 gnorm: 0.000360873339 xtb: 6.5.1 (b24c23e)
C           -1.43385117053529       -0.21337802133936       -0.04295973032086
C            0.13361674056627        0.01582637354053        0.00500209051406
O            0.52729805811246        1.11506373487306       -0.41097185524574
O            0.79942907661322       -0.93332608419526        0.44344902328692
H           -1.95673217401878        0.73963001568859        0.02397722578210
H           -1.68598903803516       -0.68778670690936       -0.99188476807963
H           -1.74285349270273       -0.86934532165819        0.76969701406315
