7
 energy: -14.166155663333 gnorm: 0.000561894240 xtb: 6.5.1 (b24c23e)
C           -1.43274643143751       -0.22076098535454       -0.04498341378470
C            0.13464761501383        0.01038251872205        0.00217582134010
O            0.55198176982952        0.95299418121277       -0.68645385554419
O            0.77542240966118       -0.77347123861205        0.71711552378363
H           -1.94245572876507        0.69467719961783        0.25445963896437
H           -1.72838727982162       -0.46218568403373       -1.06588523119251
H           -1.71754436448034       -1.03495199155233        0.61988052643329
