7
 energy: -14.166166081980 gnorm: 0.000785139150 xtb: 6.5.1 (b24c23e)
C           -1.43202283723852       -0.22480192966645       -0.05504050873232
C            0.13542778459716        0.00826496091330       -0.00261367153324
O            0.59955458886690        0.72175177914986       -0.90347292103584
O            0.72671796785576       -0.53787476105931        0.93975876494340
H           -1.92175213882745        0.59144407921565        0.47681129131071
H           -1.77704704932066       -0.22645332401739       -1.08799215238367
H           -1.68996131593318       -1.16564681453566        0.42885819743095
