7
 energy: -14.166155454487 gnorm: 0.000704844983 xtb: 6.5.1 (b24c23e)
C           -1.43481519318881       -0.20268763316339       -0.05716456025263
C            0.13706937664750       -0.00660115400637       -0.00354476773173
O            0.62964402692197        0.01498027166313        1.13388581307235
O            0.70582768180256        0.10383571175425       -1.09918448378811
H           -1.77984951785652       -0.23076888071941       -1.08974717858377
H           -1.69951745767249       -1.13344496264189        0.44409245698074
H           -1.91743790665421        0.62136763711369        0.46796973030314
