7
 energy: -14.166165655392 gnorm: 0.000800749610 xtb: 6.5.1 (b24c23e)
C           -1.43320090066517       -0.21671545591751       -0.06294924349011
C            0.13420925277212        0.01521941222942       -0.00061764036833
O            0.49417972800183        1.18285187684480        0.20841546193498
O            0.83174377061979       -0.99721429946288       -0.15823993095942
H           -1.93167119934682        0.67782752675798       -0.43344783117940
H           -1.66274391276845       -1.06814043330827       -0.70204422721734
H           -1.79159972861330       -0.42714562714354        0.94519140127961
