7
 energy: -14.166155500148 gnorm: 0.000433407201 xtb: 6.5.1 (b24c23e)
C           -1.43186911102935       -0.22295973209530       -0.05141037881982
C            0.13507071346791        0.00934917648499       -0.00236762871121
O            0.49612027086218        1.07736937091149        0.51276661261853
O            0.83053748274176       -0.89598482774332       -0.48454466698302
H           -1.89236986407006        0.56170992146489       -0.65152877821103
H           -1.65924361480902       -1.19577346321727       -0.48517023931672
H           -1.83732887716343       -0.16702844580549        0.95856308942327
