7
 energy: -14.166165906046 gnorm: 0.000834391985 xtb: 6.5.1 (b24c23e)
C           -1.43428024283847       -0.20702210783792       -0.05094628490073
C            0.13340947867679        0.01678600207777       -0.00032535355327
O            0.69750773152706        0.10663055897635       -1.10051192577159
O            0.63026957099720        0.06692662866435        1.13428296709619
H           -1.90623627041511        0.23682042279154        0.82464621148863
H           -1.84797179294441        0.22607244377112       -0.96068242671240
H           -1.63177948500305       -1.27953094844320       -0.05015419764683
