%RWF=/home/chase/temp/Gau-mso4/,166GB
%Nosave
%Chk=mso4-dma_temp.chk
%Mem=5GB
%Nproc=6
#P MP2/6-311G** Sp Density=MP2 MaxDisk=166GB 

mso4 Gaussian SP Calculation on DESKTOP-26BCFJT

-1 1
 S   -0.439488    0.063626    0.077951
 O   -0.714222    0.075860   -1.377445
 O   -0.541134   -1.275892    0.701783
 O    1.211733    0.430022    0.178695
 C    2.016560   -0.521745   -0.507075
 O   -1.013299    1.177560    0.849912
 H    1.763761   -0.553013   -1.572014
 H    3.053907   -0.198955   -0.383575
 H    1.887867   -1.522255   -0.081168



