%RWF=/home/chase/temp/Gau-imim/,166GB
%Nosave
%Chk=imim-dma_temp.chk
%Mem=5GB
%Nproc=6
#P MP2/6-311G** Sp Density=MP2 MaxDisk=166GB 

imim Gaussian SP Calculation on DESKTOP-26BCFJT

1 1
 N    0.588846   -0.960873   -0.008155
 C    1.078723    0.247980    0.291154
 N    0.061002    1.110267    0.183459
 H    0.135616    2.111312    0.353459
 C   -1.086799    0.449652   -0.186826
 C   -0.750054   -0.871919   -0.308843
 H    1.137197   -1.818703   -0.010103
 H    2.096590    0.481972    0.565869
 H   -2.028548    0.957390   -0.330720
 H   -1.343137   -1.732495   -0.579119



